LAMMPS (2 Aug 2023 - Development - patch_2Aug2023-289-gafabb279a3)
# REAX potential for
# .....

boundary        p p p
units           real

atom_style      charge
read_data       ./lmp.data
Reading data file ...
  orthogonal box = (-3.0805 -3.5 -0.647798) to (3.9195 3.5 247.3394)
  reading atoms ...
  576 atoms
#read_data       ./final.lammps
replicate       1 1 1
Replication is creating a 1x1x1 = 1 times larger system...
  orthogonal box = (-3.0805 -3.5 -0.647798) to (3.9195 3.5 247.3394)
  576 atoms
  replicate CPU = 0.002 seconds

change_box all triclinic
Changing box ...
  triclinic box = (-3.0805 -3.5 -0.647798) to (3.9195 3.5 247.3394) with tilt (0 0 0)
pair_style      reax/c NULL
pair_coeff      * * ../../../ForceFiledFiles/ffield.reax.FC C F H
Reading potential file ../../../ForceFiledFiles/ffield.reax.FC with DATE: 2013-06-28
neighbor        2. bin
neigh_modify    every 10 delay 0 check no
fix             q all qeq/reax 1 0.0 10.0 1e-6 reax/c

variable        dt_MD equal 0.5
variable        dt_MIN equal 10*v_dt_MD
timestep        0.5
thermo_style    custom step temp epair etotal press fmax fnorm density
thermo          20
write_data      init.lmpdata
System init for write_data ...
variable        Tdamp equal 100*dt
variable        Pdamp equal 1000*dt
compute         Mu all property/atom xu yu zu
variable        qx atom q*c_Mu[1]
variable        qy atom q*c_Mu[2]
variable        qz atom q*c_Mu[3]
compute         Mx all reduce sum v_qx
compute         My all reduce sum v_qy
compute         Mz all reduce sum v_qz
thermo_style    custom step temp epair etotal press fmax fnorm density vol c_Mx c_My c_Mz
dump            dcd all dcd 200 dump.dcd
dump_modify     dcd unwrap yes
dump            qxyz all custom 20 dump.qxyz.txt id q xu yu zu
dump_modify     qxyz sort id
dump            xyz_form all xyz 100 dump.xyz
dump_modify     xyz_form sort id

variable        T0 equal 1300
variable        T1 equal 300
timestep        0.5
fix             npt all npt temp 1300 300 50  iso 0 0 500
fix             mom all momentum 1 linear 1 1 1
run             4000

CITE-CITE-CITE-CITE-CITE-CITE-CITE-CITE-CITE-CITE-CITE-CITE-CITE

Your simulation uses code contributions which should be cited:

- pair reaxff command: doi:10.1016/j.parco.2011.08.005

@Article{Aktulga12,
 author = {H. M. Aktulga and J. C. Fogarty and S. A. Pandit and A. Y. Grama},
 title = {Parallel Reactive Molecular Dynamics: {N}umerical Methods and Algorithmic Techniques},
 journal = {Parallel Computing},
 year =    2012,
 volume =  38,
 number =  {4--5},
 pages =   {245--259}
}

- fix qeq/reaxff command: doi:10.1016/j.parco.2011.08.005

@Article{Aktulga12,
 author = {H. M. Aktulga and J. C. Fogarty and S. A. Pandit and A. Y. Grama},
 title = {Parallel Reactive Molecular Dynamics: {N}umerical Methods and Algorithmic Techniques},
 journal = {Parallel Computing},
 year =    2012,
 volume =  38,
 pages =   {245--259}
}

CITE-CITE-CITE-CITE-CITE-CITE-CITE-CITE-CITE-CITE-CITE-CITE-CITE

Step          Temp          E_pair         TotEng         Press           Fmax          Fnorm         Density         Volume          c_Mx           c_My           c_Mz
0   0             -59870.442     -59870.442      751836.55      1554.5544      18276.562      0.90888936     12151.373      39.753919      1.0391717      10.337209
Averages over the last 101 of 201 rows, steps 2000 to 4000:
Temp E_pair TotEng Press Fmax Fnorm Density Volume c_Mx c_My c_Mz
582.087 -63765.1 -62767.4 -1063.26 300.574 1828.98 1.04308 10665.6 32.0529 0.175015 7.53389
Loop time of 43.4481 on 32 procs for 4000 steps with 576 atoms

unfix           npt

write_data npt.lammps
System init for write_data ...

# isotropic volume relaxation to hydrostatic target

fix             3 all box/relax tri 0.0 vmax 1.0e-3
variable        emin equal pe+f_3/atoms
thermo_style    custom step temp pe pxx pyy pzz f_3 v_emin  cella cellb cellc cellalpha cellbeta cellgamma
minimize    1.0e-6 0.001 1000 10000
 (src/min.cpp:225)
Step          Temp          PotEng          Pxx            Pyy            Pzz            f_3           v_emin         Cella          Cellb          Cellc        CellAlpha       CellBeta      CellGamma
4000   328.7135      -64294.311     -16368.073     -9579.8193     -9013.5946      0             -64294.311      6.3608524      6.3608524      225.34428      90             90             90
Loop time of 2.49645 on 32 procs for 135 steps with 576 atoms

Minimization stats:
  Stopping criterion = energy tolerance
  Energy initial, next-to-last, final =
  Force two-norm initial, final = 3690.0874 376.91842
  Force max component initial, final = 2572.1854 212.95742
  Final line search alpha, max atom move = 3.9292576e-06 0.00083676457
  Iterations, force evaluations = 135 186

write_data final.lammps
System init for write_data ...
