LAMMPS (2 Aug 2023 - Development - patch_2Aug2023-289-gafabb279a3)
# REAX potential for
# .....

boundary        p p p
units           real

atom_style      charge
read_data       ./lmp.data
Reading data file ...
  orthogonal box = (-0.636 -1.9345 -0.647798) to (3.587 5.8035 247.3394)
  reading atoms ...
  1152 atoms
#read_data       ./final.lammps
replicate       1 1 1
Replication is creating a 1x1x1 = 1 times larger system...
  orthogonal box = (-0.636 -1.9345 -0.647798) to (3.587 5.8035 247.3394)
  1152 atoms
  replicate CPU = 0.002 seconds

#change_box all triclinic
pair_style      reax/c NULL
pair_coeff      * * ../../../ForceFiledFiles/ffield.reax.FC C F H
Reading potential file ../../../ForceFiledFiles/ffield.reax.FC with DATE: 2013-06-28
neighbor        2. bin
neigh_modify    every 10 delay 0 check no
fix             q all qeq/reax 1 0.0 10.0 1e-6 reax/c

variable        dt_MD equal 0.5
variable        dt_MIN equal 10*v_dt_MD
timestep        0.5
thermo_style    custom step temp epair etotal press fmax fnorm density
thermo          20
write_data      init.lmpdata
System init for write_data ...
variable        Tdamp equal 100*dt
variable        Pdamp equal 1000*dt
compute         Mu all property/atom xu yu zu
variable        qx atom q*c_Mu[1]
variable        qy atom q*c_Mu[2]
variable        qz atom q*c_Mu[3]
compute         Mx all reduce sum v_qx
compute         My all reduce sum v_qy
compute         Mz all reduce sum v_qz
thermo_style    custom step temp epair etotal press fmax fnorm density vol c_Mx c_My c_Mz
dump            dcd all dcd 200 dump.dcd
dump_modify     dcd unwrap yes
dump            qxyz all custom 20 dump.qxyz.txt id q xu yu zu
dump_modify     qxyz sort id
dump            xyz_form all xyz 100 dump.xyz
dump_modify     xyz_form sort id

variable        T0 equal 300
variable        T1 equal 300
timestep        0.5
fix             npt all npt temp 300 300 50  iso 0 0 500
fix             mom all momentum 1 linear 1 1 1
run             40000

CITE-CITE-CITE-CITE-CITE-CITE-CITE-CITE-CITE-CITE-CITE-CITE-CITE

Your simulation uses code contributions which should be cited:

- pair reaxff command: doi:10.1016/j.parco.2011.08.005

@Article{Aktulga12,
 author = {H. M. Aktulga and J. C. Fogarty and S. A. Pandit and A. Y. Grama},
 title = {Parallel Reactive Molecular Dynamics: {N}umerical Methods and Algorithmic Techniques},
 journal = {Parallel Computing},
 year =    2012,
 volume =  38,
 number =  {4--5},
 pages =   {245--259}
}

- fix qeq/reaxff command: doi:10.1016/j.parco.2011.08.005

@Article{Aktulga12,
 author = {H. M. Aktulga and J. C. Fogarty and S. A. Pandit and A. Y. Grama},
 title = {Parallel Reactive Molecular Dynamics: {N}umerical Methods and Algorithmic Techniques},
 journal = {Parallel Computing},
 year =    2012,
 volume =  38,
 pages =   {245--259}
}

CITE-CITE-CITE-CITE-CITE-CITE-CITE-CITE-CITE-CITE-CITE-CITE-CITE

Step          Temp          E_pair         TotEng         Press           Fmax          Fnorm         Density         Volume          c_Mx           c_My           c_Mz
0   0             -117881.92     -117881.92      2331409        1554.0807      25622.413      2.725758       8103.62        112.36206      2.8071624      60.662637
Averages over the last 1001 of 2001 rows, steps 20000 to 40000:
Temp E_pair TotEng Press Fmax Fnorm Density Volume c_Mx c_My c_Mz
300.008 -127722 -126693 -421.215 242.897 1840 2.33954 9441.45 106.861 3.72969 54.3664
Loop time of 1544.11 on 32 procs for 40000 steps with 1152 atoms

unfix           npt

write_data npt.lammps
System init for write_data ...

# isotropic volume relaxation to hydrostatic target

#fix             3 all box/relax  vmax 1.0e-3
#variable        emin equal pe+f_3/atoms
#thermo_style    custom step temp pe pxx pyy pzz f_3 v_emin  cella cellb cellc cellalpha cellbeta cellgamma
#minimize    1.0e-6 0.001 1000 10000

write_data final.lammps
System init for write_data ...
