LAMMPS (2 Aug 2023 - Development - patch_2Aug2023-289-gafabb279a3)

# REAX potential for
# .....

#package         kokkos neigh half comm no newton on

boundary        s p p
units           real

atom_style      charge
#read_data       final.lmpdata nocoeff
read_data       lmp.data nocoeff
Reading data file ...
  triclinic box = (0 0 0) to (22.828464 8.088404 259.21693) with tilt (0 0 0)
  reading atoms ...
  4512 atoms

pair_style      reax/c NULL checkqeq no
pair_modify     shift yes
pair_coeff      * * ../../../ForceFiledFiles/ffield.reax.FC C F H
Reading potential file ../../../ForceFiledFiles/ffield.reax.FC with DATE: 2013-06-28

neighbor        2. bin
neigh_modify    every 10 delay 0 check no
fix             q all qeq/reax 1 0.0 10.0 1e-6 reax/c

variable        dt_MD equal 0.1
variable        dt_MIN equal 10*v_dt_MD
timestep        0.1
thermo_style    custom step temp epair etotal press fmax fnorm density
thermo          20
variable        Tdamp equal 100*dt
variable        Pdamp equal 100*dt
variable        T0 equal 300
variable        T1 equal 300
thermo_style    custom step temp epair etotal press fmax fnorm density vol
#dump            dcd all dcd 4 dump.dcd
#dump_modify     dcd unwrap yes

dump            xyz_form all xyz 100 dump.xyz
dump_modify     xyz_form sort id

timestep        0.1

fix             1 all qeq/reaxff 1 0.0 10.0 1.0e-6 reaxff maxiter 400
fix             2 all nvt temp 300 300 10
fix             3 all efield 1.0e-1 0.0 0.0
fix             4 all wall/reflect xlo EDGE xhi EDGE
run             40000

CITE-CITE-CITE-CITE-CITE-CITE-CITE-CITE-CITE-CITE-CITE-CITE-CITE

Your simulation uses code contributions which should be cited:

- pair reaxff command: doi:10.1016/j.parco.2011.08.005

@Article{Aktulga12,
 author = {H. M. Aktulga and J. C. Fogarty and S. A. Pandit and A. Y. Grama},
 title = {Parallel Reactive Molecular Dynamics: {N}umerical Methods and Algorithmic Techniques},
 journal = {Parallel Computing},
 year =    2012,
 volume =  38,
 number =  {4--5},
 pages =   {245--259}
}

- fix qeq/reaxff command: doi:10.1016/j.parco.2011.08.005

@Article{Aktulga12,
 author = {H. M. Aktulga and J. C. Fogarty and S. A. Pandit and A. Y. Grama},
 title = {Parallel Reactive Molecular Dynamics: {N}umerical Methods and Algorithmic Techniques},
 journal = {Parallel Computing},
 year =    2012,
 volume =  38,
 pages =   {245--259}
}

CITE-CITE-CITE-CITE-CITE-CITE-CITE-CITE-CITE-CITE-CITE-CITE-CITE

Step          Temp          E_pair         TotEng         Press           Fmax          Fnorm         Density         Volume
0   0             -501989.17     -501989.17     -13143.757      257.49895      3747.4402      2.1701757      39978.056
Averages over the last 1001 of 2001 rows, steps 20000 to 40000:
Temp E_pair TotEng Press Fmax Fnorm Density Volume
300.296 -503757 -499719 -22295.1 288.278 3361.8 2.16982 39984.6
Loop time of 1911.36 on 32 procs for 40000 steps with 4512 atoms

write_data      final.lmpdata
System init for write_data ...
